#======================================================================

# CRYSTAL DATA

#----------------------------------------------------------------------

data_VESTA_phase_1


_chemical_name_common                  'Wien97 struct file generated by XCrySD'
_cell_length_a                         3.57017
_cell_length_b                         3.57017
_cell_length_c                         3.57017
_cell_angle_alpha                      90
_cell_angle_beta                       90
_cell_angle_gamma                      90
_space_group_name_H-M_alt              'P 1'
_space_group_IT_number                 1

loop_
_space_group_symop_operation_xyz
   'x, y, z'

loop_
   _atom_site_label
   _atom_site_occupancy
   _atom_site_fract_x
   _atom_site_fract_y
   _atom_site_fract_z
   _atom_site_adp_type
   _atom_site_B_iso_or_equiv
   _atom_site_type_symbol
   C1         1.0     0.249999      0.750001      0.249999     Biso  1.000000 C
   C2         1.0     0.000000      0.000000      0.500000     Biso  1.000000 C
   C3         1.0     0.249999      0.249999      0.750001     Biso  1.000000 C
   C4         1.0     0.000000      0.500000      0.000000     Biso  1.000000 C
   C5         1.0     0.750001      0.750001      0.750001     Biso  1.000000 C
   C6         1.0     0.500000      0.000000      0.000000     Biso  1.000000 C
   C7         1.0     0.750001      0.249999      0.249999     Biso  1.000000 C
   C8         1.0     0.500000      0.500000      0.500000     Biso  1.000000 C
