#======================================================================

# CRYSTAL DATA

#----------------------------------------------------------------------

data_VESTA_phase_1


_chemical_name_common                  'Wien97 struct file generated by XCrySD'
_cell_length_a                         3.30929
_cell_length_b                         11.23343
_cell_length_c                         4.55667
_cell_angle_alpha                      90.00008
_cell_angle_beta                       90
_cell_angle_gamma                      90
_space_group_name_H-M_alt              'P 1'
_space_group_IT_number                 1

loop_
_space_group_symop_operation_xyz
   'x, y, z'

loop_
   _atom_site_label
   _atom_site_occupancy
   _atom_site_fract_x
   _atom_site_fract_y
   _atom_site_fract_z
   _atom_site_adp_type
   _atom_site_B_iso_or_equiv
   _atom_site_type_symbol
   P1         1.0     0.000000      0.594623      0.913759     Biso  1.000000 P
   P2         1.0     0.500000      0.905377      0.086240     Biso  1.000000 P
   P3         1.0     0.000000      0.905377      0.413760     Biso  1.000000 P
   P4         1.0     0.500000      0.594622      0.586240     Biso  1.000000 P
   P5         1.0     0.500000      0.094623      0.913760     Biso  1.000000 P
   P6         1.0     0.000000      0.405377      0.086241     Biso  1.000000 P
   P7         1.0     0.500000      0.405378      0.413760     Biso  1.000000 P
   P8         1.0     0.000000      0.094623      0.586240     Biso  1.000000 P
