#======================================================================

# CRYSTAL DATA

#----------------------------------------------------------------------

data_VESTA_phase_1


_chemical_name_common                  'Wien97 struct file generated by XCrySD'
_cell_length_a                         4.90026
_cell_length_b                         4.90026
_cell_length_c                         12.55852
_cell_angle_alpha                      90
_cell_angle_beta                       90
_cell_angle_gamma                      120.00002
_space_group_name_H-M_alt              'P 1'
_space_group_IT_number                 1

loop_
_space_group_symop_operation_xyz
   'x, y, z'

loop_
   _atom_site_label
   _atom_site_occupancy
   _atom_site_fract_x
   _atom_site_fract_y
   _atom_site_fract_z
   _atom_site_adp_type
   _atom_site_B_iso_or_equiv
   _atom_site_type_symbol
   B1         1.0     0.428963      0.214482      0.224890     Biso  1.000000 B
   B2         1.0     0.785519      0.571037      0.224890     Biso  1.000000 B
   B3         1.0     0.785519      0.214482      0.224890     Biso  1.000000 B
   B4         1.0     0.214482      0.785518      0.775109     Biso  1.000000 B
   B5         1.0     0.571037      0.785518      0.775109     Biso  1.000000 B
   B6         1.0     0.214482      0.428963      0.775109     Biso  1.000000 B
   B7         1.0     0.881177      0.118823      0.108466     Biso  1.000000 B
   B8         1.0     0.237647      0.118823      0.108466     Biso  1.000000 B
   B9         1.0     0.881177      0.762353      0.108466     Biso  1.000000 B
   B10        1.0     0.762354      0.881177      0.891534     Biso  1.000000 B
   B11        1.0     0.118823      0.237646      0.891534     Biso  1.000000 B
   B12        1.0     0.118824      0.881177      0.891534     Biso  1.000000 B
   B13        1.0     0.606163      0.803081      0.024201     Biso  1.000000 B
   B14        1.0     0.196919      0.393837      0.024201     Biso  1.000000 B
   B15        1.0     0.196919      0.803081      0.024201     Biso  1.000000 B
   B16        1.0     0.803081      0.196919      0.975799     Biso  1.000000 B
   B17        1.0     0.393838      0.196919      0.975799     Biso  1.000000 B
   B18        1.0     0.803082      0.606162      0.975799     Biso  1.000000 B
   B19        1.0     0.469790      0.530211      0.309133     Biso  1.000000 B
   B20        1.0     0.060422      0.530211      0.309133     Biso  1.000000 B
   B21        1.0     0.469790      0.939578      0.309133     Biso  1.000000 B
   B22        1.0     0.939579      0.469789      0.690867     Biso  1.000000 B
   B23        1.0     0.530211      0.060421      0.690867     Biso  1.000000 B
   B24        1.0     0.530211      0.469789      0.690867     Biso  1.000000 B
   B25        1.0     0.095627      0.547813      0.558235     Biso  1.000000 B
   B26        1.0     0.452187      0.904373      0.558235     Biso  1.000000 B
   B27        1.0     0.452187      0.547813      0.558235     Biso  1.000000 B
   B28        1.0     0.547814      0.452186      0.441765     Biso  1.000000 B
   B29        1.0     0.904373      0.452186      0.441765     Biso  1.000000 B
   B30        1.0     0.547814      0.095627      0.441765     Biso  1.000000 B
   B31        1.0     0.272905      0.136452      0.357485     Biso  1.000000 B
   B32        1.0     0.863548      0.727095      0.357485     Biso  1.000000 B
   B33        1.0     0.863548      0.136452      0.357485     Biso  1.000000 B
   B34        1.0     0.136453      0.863548      0.642515     Biso  1.000000 B
   B35        1.0     0.727096      0.863548      0.642515     Biso  1.000000 B
   B36        1.0     0.136452      0.272905      0.642515     Biso  1.000000 B
