#======================================================================

# CRYSTAL DATA

#----------------------------------------------------------------------

data_VESTA_phase_1


_chemical_name_common                  ''
_cell_length_a                         5.06000
_cell_length_b                         5.06000
_cell_length_c                         5.06000
_cell_angle_alpha                      58.06180
_cell_angle_beta                       58.06180
_cell_angle_gamma                      58.06180
_space_group_name_H-M_alt              'P 1'
_space_group_IT_number                 1

loop_
_space_group_symop_operation_xyz
   'x, y, z'

loop_
   _atom_site_label
   _atom_site_occupancy
   _atom_site_fract_x
   _atom_site_fract_y
   _atom_site_fract_z
   _atom_site_adp_type
   _atom_site_B_iso_or_equiv
   _atom_site_type_symbol
   B0         1.0     0.000000      0.000000      0.000000     Biso  1.000000 B
